bench/example_grid.seq
0, 33           / PSSE-33.0    THU, APR 14 2011  13:57
    8,'1', 1.10100E-02, 3.00010E-01, 3.00010E-01, 3.00010E-01, 1.10200E-02, 3.00020E-01, 1.10300E-02, 3.00030E-01,1, 0.00000E+00, 0.00000E+00, 1
   12,'1', 1.10100E-02, 3.00010E-01, 3.00010E-01, 3.00010E-01, 1.10200E-02, 3.00020E-01, 1.10300E-02, 3.00030E-01,1, 0.00000E+00, 0.00000E+00, 0
   16,'1', 1.05100E-02, 3.20010E-01, 3.20010E-01, 3.20010E-01, 1.05200E-02, 3.20020E-01, 1.05300E-02, 3.20030E-01,1, 0.00000E+00, 0.00000E+00, 1
   17,'1', 1.05100E-02, 3.20010E-01, 3.20010E-01, 3.20010E-01, 1.05200E-02, 3.20020E-01, 1.05300E-02, 3.20030E-01,1, 0.00000E+00, 0.00000E+00, 0
   18,'1', 1.06100E-02, 2.51010E-01, 2.51010E-01, 2.51010E-01, 1.06200E-02, 2.51020E-01, 1.06300E-02, 2.51030E-01,1, 0.00000E+00, 0.00000E+00, 0
   19,'1', 1.08100E-02, 2.62010E-01, 2.62010E-01, 2.62010E-01, 1.08200E-02, 2.62020E-01, 1.08300E-02, 2.62030E-01,1, 0.00000E+00, 0.00000E+00, 0
   20,'1', 1.09100E-02, 2.30010E-01, 2.30010E-01, 2.30010E-01, 1.09200E-02, 2.30020E-01, 1.09300E-02, 2.30030E-01,1, 0.00000E+00, 0.00000E+00, 0
0  / END OF MACHINE IMPEDANCE DATA, BEGIN LOAD DATA
   1,  '1',  100.0, 15.0,  1, 100.0, 15.0
   2,  '1',  120.0, 20.0,  1, 120.0, 20.0
   4,  '1',  150.0, 25.0,  1, 150.0, 25.0
   6,  '1',  250.0, 30.0,  1, 250.0, 30.0
   13, '1',  200.0, 20.0,  1, 200.0, 20.0
0  / END OF LOAD DATA, BEGIN ZERO SEQ. NON-TRANSFORMER BRANCH DATA
   1,  2,  '1',  7.10000E-3,  1.21000E-1,    3.34000,  0.00000E+0, 0.00000E+0, 0.00000E+0, 0.00000E+0
   1,  9,  '1',  7.12000E-3,  1.32000E-1,    3.34200,  0.00000E+0, 0.00000E+0, 0.00000E+0, 0.00000E+0
   2,  3,  '1',  3.00000E-3,  4.50000E-2,    1.00000,  0.00000E+0, 0.00000E+0, 0.00000E+0, 0.00000E+0
   2,  14, '1',  2.50000E-3,  3.00000E-2,    0.90000,  0.00000E+0, 0.00000E+0, 0.00000E+0, 0.00000E+0
   3,  4,  '1',  8.00000E-3,  8.00000E-2,    2.20000,  0.00000E+0, 0.00000E+0, 0.00000E+0, 0.00000E+0
   4,  5,  '1',  1.80000E-2,  1.60000E-1,    0.06000,  0.00000E+0, 0.00000E+0, 0.00000E+0, 0.00000E+0
   5,  6,  '1',  1.00000E+0,  2.00000E-1,    0.09000,  0.00000E+0, 0.00000E+0, 0.00000E+0, 0.00000E+0
   5,  6,  '2',  1.00000E+0,  2.00000E-1,    0.09000,  0.00000E+0, 0.00000E+0, 0.00000E+0, 0.00000E+0
   6,  7,  '1',  2.00000E+0,  2.00000E-1,    0.08000,  0.00000E+0, 0.00000E+0, 0.00000E+0, 0.00000E+0
   7,  9,  '1',  8.00000E-3,  6.50000E-2,    0.22000,  0.00000E+0, 0.00000E+0, 0.00000E+0, 0.00000E+0
   9,  14, '1',  5.00000E-3,  7.00000E-2,    1.70000,  0.00000E+0, 0.00000E+0, 0.00000E+0, 0.00000E+0
   10, 11, '1',  1.50000E-2,  1.30000E-1,    0.06000,  0.00000E+0, 0.00000E+0, 0.00000E+0, 0.00000E+0
   10, 11, '2',  1.50000E-2,  1.30000E-1,    0.06000,  0.00000E+0, 0.00000E+0, 0.00000E+0, 0.00000E+0
0  / END OF ZERO SEQ. NON-TRANSFORMER BRANCH DATA, BEGIN ZERO SEQ. MUTUAL DATA
0  / END OF ZERO SEQ. MUTUAL DATA, BEGIN ZERO SEQ. TRANSFORMER DATA
   1,   20,     0,'1',1,1,  32, 4.80000E-3, 7.20000E-3, 1.00000E-4, 7.71000E-3, 0.00000E+0, 0.00000E+0, 0.00000E+0, 0.00000E+0, 0.00000E+0, 0.00000E+0
   3,   17,     0,'1',1,1,  23, 0.00000E+0, 0.00000E+0, 1.30000E-4, 7.73000E-3, 4.81000E-3, 7.21000E-3, 0.00000E+0, 0.00000E+0, 0.00000E+0, 0.00000E+0
   5,   12,     0,'1',1,1,  33, 0.00000E+0, 0.00000E+0, 1.90000E-4, 7.94000E-3, 0.00000E+0, 0.00000E+0, 0.00000E+0, 0.00000E+0, 0.00000E+0, 0.00000E+0
   7,    8,     0,'1',1,1,  33, 4.82000E-3, 7.22000E-3, 2.10000E-4, 8.15000E-3, 0.00000E+0, 0.00000E+0, 0.00000E+0, 0.00000E+0, 0.00000E+0, 0.00000E+0
   10,   9,    13,'1',1,1, 111, 0.00000E+0, 0.00000E+0,-1.50000E-4, 5.83300E-2, 0.00000E+0, 0.00000E+0, 5.30000E-3, 4.41660E-1, 0.00000E+0, 0.00000E+0, 5.30000E-3, 4.41660E-1, 0.00000E+0, 0.00000E+0
   11,  19,     0,'1',1,1,  33, 0.00000E+0, 0.00000E+0, 4.40000E-4, 1.27600E-2, 0.00000E+0, 0.00000E+0, 0.00000E+0, 0.00000E+0, 0.00000E+0, 0.00000E+0
   14,  16,     0,'1',1,1,  33, 3.76000E-3, 6.54000E-3, 3.60000E-4, 9.91000E-3, 0.00000E+0, 0.00000E+0, 0.00000E+0, 0.00000E+0, 0.00000E+0, 0.00000E+0
   15,  18,     0,'1',1,1,  33, 0.00000E+0, 0.00000E+0, 4.40000E-4, 1.27600E-2, 0.00000E+0, 0.00000E+0, 0.00000E+0, 0.00000E+0, 0.00000E+0, 0.00000E+0
0  / END OF ZERO SEQ. TRANSFORMER DATA, BEGIN ZERO SEQ. SWITCHED SHUNT DATA
0  / END OF ZERO SEQ. SWITCHED SHUNT DATA, BEGIN ZERO SEQ. FIXED SHUNT DATA 
0  / END OF ZERO SEQ. FIXED SHUNT DATA, BEGIN INDUCTION MACHINE DATA
0  / END OF INDUCTION MACHINE DATA